mfilt=1500
nhtfrq   = 1
history_budget=.true.
