use_topo_file = .true.
analytic_ic_type = 'us_standard_atmosphere'
se_statefreq = 256
interpolate_output = .false.,.true.
interpolate_nlat = 192,192,192
interpolate_nlon = 288,288,288
ncdata='$DIN_LOC_ROOT/atm/cam/inic/se/ape_topo_cam6_ne30np4_L32_c171023.nc'
fincl2='PS','T','U','V','OMEGA500','OMEGA850','TT_UN'
fincl1='PS','T','U','V','OMEGA500','OMEGA850','TT_UN'
empty_htapes=.true.
avgflag_pertape(1)='A'
avgflag_pertape(2)='A'
nhtfrq=0,0,0,
inithist='YEARLY'
