mfilt=1,1,1,1,1,1
ndens=1,1,1,1,1,1
nhtfrq=3,3,3,3,3,3
inithist='ENDOFRUN'
pbuf_global_allocate=.false.
se_refined_mesh=.true.
analytic_ic_type = 'moist_baroclinic_wave_dcmip2016'
