mfilt=1,1,1,1,1,1,1,1,1
ndens=1,1,1,1,1,1,1,1,1
nhtfrq=9,9,9,9,9,9,9,9,9
inithist='ENDOFRUN'

se_nsplit = 30
state_debug_checks = .true.

