
finidat = '$DIN_LOC_ROOT/lnd/clm2/initdata/f.e11.FWTREFC1SD.f19.f19.ccmi30.001.clm2.r.2000-01-01-00000.nc'

