mfilt=1,1,1,1,1,1,1,1,1,1
ndens=1,1,1,1,1,1,1,1,1,1
nhtfrq=-24,-24,-24,-24,-24,-24,-24,-24,-24,-24
tracer_cnst_specifier = 'O3','OH','NO3','HO2','HALONS'
flbc_cycle_yr=1850
