 ionos_epotential_model = 'weimer'
 nhtfrq = -24,-24,-24,-24,-24,-24,-24
 fincl7='UI','VI','WI','PHIM2D','POTEN','QIONSUM','ELECDEN','QJOULE',
        'UT_LUNAR','VT_LUNAR'
 apply_lunar_tides=.true.
