mfilt=1,1,1,1,1,1,1,1,1
ndens=1,1,1,1,1,1,1,1,1
nhtfrq=9,9,9,9,9,9,9,9,9
avgflag_pertape = 'A',  'I',  'I',  'A',  'A', 'A', 'A'
fincl6 = 'PED_CONDUCTANCE','HALL_CONDUCTANCE','EDYN_ZIGMC','EDYN_ZIGM2','EDYN_ZIGM11','EDYN_ZIGM22'
ionos_debug_hist=.true.
inithist='ENDOFRUN'
