mfilt=1,1,1,1,1,1,1,1,1
ndens=1,1,1,1,1,1,1,1,1
nhtfrq=9,9,9,9,9,9,9,9,9
avgflag_pertape = 'A',  'I',  'I',  'A',  'A', 'A', 'A'
inithist='ENDOFRUN'
fincl6 = 'EDYN_ZIGM2_HAL','EDYN_ZIGM11_PED','PED_CONDUCTANCE','HALL_CONDUCTANCE'
