mfilt=1,1,1,1,1,1
ndens=1,1,1,1,1,1
nhtfrq=9,9,9,9,9,9
inithist='ENDOFRUN'
npr_yz = 48,12,12,48
