mfilt=1,1,1,1,1,1
ndens=1,1,1,1,1,1
nhtfrq=9,9,9,9,9,9
write_nstep0=.true.
inithist='ENDOFRUN'

mee_fluxes_filepath='$DIN_LOC_ROOT/atm/waccm/mee/RBSP-ECT_FB_precip_c211124.nc'
mee_fluxes_fillin = .true.
mee_ion_blc = 66.66
mee_ion_inline=.true.
fincl2 = 'EPP_ionpairs', 'APMEEionprs','N2D_EPP','N4S_EPP'
