! Users should add all user specific namelist changes below in the form of
! namelist_var = new_namelist_value

 fincl2='U','V','T','Q','PS','Nudge_U','Nudge_V','Nudge_T','Nudge_Q','Target_U','Target_V','Target_T','Target_Q'
 nhtfrq=3,3,3,3,3,3,3,3,3,3
 mfilt =1,1,1,1,1,1,1,1,1,1
 ndens =1,1,1,1,1,1,1,1,1,1

 Nudge_ZonalFilter  = .true.
 Nudge_ZonalNbasis  = 64
