phys_grid_ctem_nfreq = -12
phys_grid_ctem_zm_nbas = 120
phys_grid_ctem_za_nlat = 90

fincl1 = ' '
fexcl1 = ' '

fincl2 = 'VTHzaphys','WTHzaphys','UVzaphys','UWzaphys'

mfilt=1,1,1,1,1,1,1,1,1,1
ndens=1,1,1,1,1,1,1,1,1,1
nhtfrq=-24,-24,-24,-24,-24,-24,-24,-24,-24,-24
inithist='ENDOFRUN'
