hist_nhtfrq = -24
hist_mfilt  = 1
hist_ndens  = 1
