inithist     = 'ENDOFRUN'
empty_htapes = .true.
fincl1       = 'PHIS'
avgflag_pertape = 'I'
nhtfrq       = -1
