hist_nhtfrq = 9
hist_mfilt  = 1
hist_ndens  = 1
fsurdat = '${DIN_LOC_ROOT}/lnd/clm2/surfdata_map/surfdata_mpasa480_hist_78pfts_CMIP6_simyr2000_c201001.nc'
