NDENS    = 1,1
MFILT    = 1,10
nhtfrq   = 0,1
inithist_all = .true.
ncdata='$DIN_LOC_ROOT/atm/cam/inic/gaus/cami_0000-01-01_64x128_T42_L26_c031110.nc'
