! Users should add all user specific namelist changes below in the form of 
! namelist_var = new_namelist_value 
nhtfrq = 1
mfilt = 1
ndens = 1
 
