mfilt=1,1,1,1,1,1
ndens=1,1,1,1,1,1
nhtfrq=9,9,9,9,9,9
inithist='ENDOFRUN'
history_aero_optics = .true.
