!scmlon=$PTS_LON
!scmlat=$PTS_LAT
iopfile="$CASEROOT/STUB_iop.nc"
!ncdata="/home/aherring/scam/inic/SCAM_IC_288x192_L58_48_BL10.nc"
ncdata = '/glade/work/aherring/grids/vertical-res/L58/SCAM_IC_288x192_L58_48_BL10.nc'

!bnd_topo="/fs/cgd/csm/inputdata/atm/cam/topo/fv_0.9x1.25_nc3000_Nsw042_Nrs008_Co060_Fi001_ZR_sgh30_24km_GRNL_c170103.nc"
bnd_topo = '/glade/p/cesmdata/inputdata/atm/cam/topo/fv_0.9x1.25_nc3000_Nsw042_Nrs008_Co060_Fi001_ZR_sgh30_24km_GRNL_c170103.nc'

mfilt=2000
nhtfrq=1
avgflag_pertape(1)='A'

scm_use_obs_uv = .false.
scm_relaxation         = .false.
scm_relax_fincl = 'T', 'bc_a1', 'bc_a4', 'dst_a1', 'dst_a2', 'dst_a3', 'ncl_a1', 'ncl_a2',
                   'ncl_a3', 'num_a1', 'num_a2', 'num_a3',
                   'num_a4', 'pom_a1', 'pom_a4', 'so4_a1', 'so4_a2', 'so4_a3', 'soa_a1', 'soa_a2'
scm_relax_bot_p              = 105000.
scm_relax_top_p        = 200.
scm_relax_linear             = .true.
scm_relax_tau_bot_sec                = 864000.
scm_relax_tau_top_sec                = 172800.

use_scm_ana_frc        = .true.
!scm_ana_frc_path = "/project/amp/aherring/cam6_3_006.dev_FHIST_f09_f09_mg17_144pes_210818_L58_cam64_MJJA2010/run/"
scm_ana_frc_path = "/glade/p/cesm/amwg/aherring/FORC_FOR_SCAM/cam6_3_006.dev_FHIST_f09_f09_mg17_144pes_210818_L58_cam64_MJJA2010/run/"
scm_ana_frc_file_template = "cam6_3_006.dev_FHIST_f09_f09_mg17_144pes_210818_L58_cam64_MJJA2010.cam.h2.%y-%m-%d-%s.nc"

scm_ana_x_plevels       = .true.
scm_ana_direct_omega    = .true.
scm_ana_direct_ttend    = .false.
scm_ana_t_react         = .false.
scm_ana_q_react         = .false.
scm_ana_u_react         = .false.
scm_ana_v_react         = .false.
scm_ana_upwind          = .false.


use_gw_convect_dp		= .false.
use_gw_convect_sh		= .false.
use_gw_front		= .false.
